# Created by the Bilbao Crystallographic Server
# http://www.cryst.ehu.es

# Honeycomb

data_6QL8y6wx
_audit_creation_method             "Bilbao Crystallographic Server"
_symmetry_Int_Tables_number        191
_symmetry_space_group_name_H-M    "P6/mmm1'"
_cell_length_a                     5.0000
_cell_length_b                     5.0000
_cell_length_c                     5.0000
_cell_angle_alpha                  90.0000
_cell_angle_beta                   90.0000
_cell_angle_gamma                  120.0000

loop_
_symmetry_equiv_pos_site_id
_symmetry_equiv_pos_as_xyz
   1   x,y,z
   2   x-y,x,z
   3   -y,x-y,z
   4   -x,-y,z
   5   -x+y,-x,z
   6   y,-x+y,z
   7   x-y,-y,-z
   8   x,x-y,-z
   9   y,x,-z
  10   -x+y,y,-z
  11   -x,-x+y,-z
  12   -y,-x,-z
  13   -x,-y,-z
  14   -x+y,-x,-z
  15   y,-x+y,-z
  16   x,y,-z
  17   x-y,x,-z
  18   -y,x-y,-z
  19   -x+y,y,z
  20   -x,-x+y,z
  21   -y,-x,z
  22   x-y,-y,z
  23   x,x-y,z
  24   y,x,z

loop_
_atom_site_label
_atom_site_type_symbol
_atom_site_fract_x
_atom_site_fract_y
_atom_site_fract_z
_atom_site_occupancy
C1 C 0.33333 0.66667 0.00000 1.0000
